PBAR,30,2,.0001636,7.661E-9,5.723E-8
PBAR,31,2,.0003403,3.315E-8,2.476E-7
PBAR,32,2,.0003097,2.745E-8,2.051E-7
PBAR,33,2,.0005161,5.695E-7,7.624E-8
PBAR,34,2,.0011355,3.691E-7,2.757E-6
PBAR,35,2,.0001064,2.421E-8, 3.24E-9

PSHELL,1,1,0.00635,1,,1
PSHELL,2,1,0.005334,1,,1
PSHELL,3,1,0.004572,1,,1
PSHELL,4,1,0.003302,1,,1
PSHELL,5,1,0.00254,1,,1
PSHELL,6,1,0.001651,1,,1
PSHELL,7,1,0.01905,1,,1
PSHELL,8,1,0.01524,1,,1
PSHELL,9,1,0.0127,1,,1
PSHELL,10,1,0.009525,1,,1
PSHELL,11,1,0.00508,1,,1
PSHELL,12,1,0.00254,1,,1

CQUAD4,12367,7,6752,6753,6754,6755
CQUAD4,12371,7,82,6767,23,24
CQUAD4,12427,7,249,6755,6973,250
CQUAD4,13774,7,8701,8339,8341,8700
CQUAD4,13775,7,6963,8702,15,6964
CQUAD4,13776,7,7032,6963,6964,7031
CQUAD4,13777,7,8705,8664,8665,8704
CQUAD4,13778,7,8707,7583,7584,8706
CQUAD4,13779,7,8709,8643,993,8708
CQUAD4,13780,7,8711,7350,7351,8710
CQUAD4,13781,7,6955,7032,7031,6956
CQUAD4,13782,7,7094,6955,6956,10
CQUAD4,13872,7,8892,8893,9,8891
CQUAD4,13873,7,8894,7030,8893,8892
CQUAD4,13874,7,8895,8896,7030,8894
CQUAD4,13875,7,8343,8341,8896,8895
CQUAD4,13876,7,8373,18,8700,8897
CQUAD4,13877,7,8898,8669,8668,8899
CQUAD4,13878,7,7588,7587,8901,8900
CQUAD4,13879,7,8647,82,8903,8902
$ ... 1591 like lines cut

$,Elements,and,Element,Properties,for,region,:,conm2
CONM2,1553315,33533,0,381.018,0.,0.,0.
,0.,0.,0.,0.,0.,0.
CONM2,1553316,33534,0,381.018,0.,0.,0.
,0.,0.,0.,0.,0.,0.
CONM2,1553317,33535,0,381.018,0.,0.,0.
,0.,0.,0.,0.,0.,0.
CONM2,1553318,33536,0,381.018,0.,0.,0.
,0.,0.,0.,0.,0.,0.
CONM2,1553319,33537,0,381.018,0.,0.,0.
,0.,0.,0.,0.,0.,0.
CONM2,1553320,33538,0,381.018,0.,0.,0.
,0.,0.,0.,0.,0.,0.
CONM2,1553321,33539,0,63.5029,0.,0.,0.
,0.,0.,0.,0.,0.,0.
CONM2,1553322,33540,0,63.5029,0.,0.,0.
,0.,0.,0.,0.,0.,0.
CONM2,1553323,33541,0,63.5029,0.,0.,0.
,0.,0.,0.,0.,0.,0.
CONM2,1553324,33550,0,108.862,0.,0.,0.
,0.,0.,0.,0.,0.,0.
CONM2,1553325,33551,0,108.862,0.,0.,0.
,0.,0.,0.,0.,0.,0.
CONM2,1553326,33544,0,145.15,0.,0.,0.
,0.,0.,0.,0.,0.,0.
CONM2,1553327,33546,0,145.15,0.,0.,0.
,0.,0.,0.,0.,0.,0.
CONM2,1553328,33547,0,145.15,0.,0.,0.
,0.,0.,0.,0.,0.,0.
CONM2,1553329,33548,0,108.862,0.,0.,0.
,0.,0.,0.,0.,0.,0.
CONM2,1553330,33549,0,145.15,0.,0.,0.
,0.,0.,0.,0.,0.,0.
CONM2,1553331,33542,0,145.15,0.,0.,0.
,0.,0.,0.,0.,0.,0.
CONM2,1553332,33543,0,145.15,0.,0.,0.
,0.,0.,0.,0.,0.,0.
CONM2,1553333,33545,0,145.15,0.,0.,0.
,0.,0.,0.,0.,0.,0.
CONM2,1553334,33532,0,381.018,0.,0.,0.
,0.,0.,0.,0.,0.,0.

$,Referenced,Material,Records
$,Material,Record,:,mat1.1
$,Description,of,Material,:
MAT1,1,6.89E+10,,.31,2795.67
$,Material,Record,:,mat1.2
$,Description,of,Material,:
MAT1,2,6.89E+10,,.31,2795.67

$,Nodes,of,the,Entire,Model
GRID,2,,36.34371,11.09399,4.156464
GRID,3,,36.35182,11.09396,4.655352
GRID,6,,36.08006, 10.4975,4.109127
GRID,7,,36.08839,10.49747,4.634766
GRID,9,,33.89585,4.195985, 3.42881
GRID,10,,33.89942,4.195945,4.270034
GRID,13,,35.96954,10.58589,4.654618
GRID,14,,35.85866,10.25774,4.641666
GRID,15,,33.55528,3.055777,4.169467
GRID,17,,33.51411,2.446162,4.088929
GRID,18,,33.51282, 2.44548,3.065424
GRID,23,,33.33745,.2990061, 2.59693
GRID,24,,33.33913,.6164965,2.663221
GRID,35,,32.05724,11.14144,4.262473
GRID,38,,32.06489,11.14143,4.730776
GRID,39,,31.68639,  10.626,4.247444
GRID,40,,31.69408,  10.626,4.732753
GRID,43,,31.32303,10.10448,4.226233
GRID,44,,31.33099,10.10447,4.738505
GRID,49,,26.47305,2.445565, 3.46462
$ ... 10804 like lines cut