ID UCRM WING
SOL 3
CEND
MAXLINES=999999999
TITLE=crm_modal_stringers
SPC = 1
$MPC = 1493985
METHOD = 1
VECTOR(PUNCH) = ALL
BEGIN BULK

EIGR,1,{eigr},{F1},{F2},10,{M},,,
,MAX

PARAM,AUTOSPC,1
PARAM,GRDPNT,0

PROD,13,1,{a1}
PROD,14,1,{a2}
PROD,15,1,{a3}
PROD,16,1,{a4}
PROD,17,1,{a5}
PROD,18,1,{a6}

PBAR,30,2,{s1},{Ix1},{Iy1}
PBAR,31,2,{s2},{Ix2},{Iy2}
PBAR,32,2,{s3},{Ix3},{Iy3}
PBAR,33,2,{s4},{Ix4},{Iy4}
PBAR,34,2,{s5},{Ix5},{Iy5}
PBAR,35,2,{s6},{Ix6},{Iy6}
PBAR,36,2,{s7},{Ix7},{Iy7}
PBAR,38,2,{s8},{Ix8},{Iy8}

PSHELL,1,1,{t1},1,,1
PSHELL,2,1,{t2},1,,1
PSHELL,3,1,{t3},1,,1
PSHELL,4,1,{t4},1,,1
PSHELL,5,1,{t5},1,,1
PSHELL,6,1,{t6},1,,1
PSHELL,7,1,{t7},1,,1
PSHELL,8,1,{t8},1,,1
PSHELL,9,1,{t9},1,,1
PSHELL,10,1,{t10},1,,1
PSHELL,11,1,{t11},1,,1
PSHELL,12,1,{t12},1,,1

$,Referenced,Material,Records
$,Material,Record,:,mat1.1
$,Description,of,Material,:
MAT1,1,6.89E+10,,.31,2795.67
$,Material,Record,:,mat1.2
$,Description,of,Material,:
MAT1,2,6.89E+10,,.31,2795.67

LOAD,203,1.0,1.0,201


$Case parameters
$,L,4,V,3

$,Nodes,of,the,Entire,Model
GRID,1,,{x1},{y1},{z1}
GRID,2,,{x2},{y2},{z2}
GRID,3,,{x3},{y3},{z3}
GRID,4,,{x4},{y4},{z4}
GRID,5,,{x5},{y5},{z5}
GRID,6,,{x6},{y6},{z6}
GRID,7,,{x7},{y7},{z7}
GRID,8,,{x8},{y8},{z8}
GRID,9,,{x9},{y9},{z9}
GRID,10,,{x10},{y10},{z10}
GRID,11,,{x11},{y11},{z11}
GRID,12,,{x12},{y12},{z12}
GRID,13,,{x13},{y13},{z13}
GRID,14,,{x14},{y14},{z14}
GRID,15,,{x15},{y15},{z15}
GRID,16,,{x16},{y16},{z16}
GRID,17,,{x17},{y17},{z17}
GRID,18,,{x18},{y18},{z18}
GRID,19,,{x19},{y19},{z19}
GRID,20,,{x20},{y20},{z20}
$ ... 670 like lines cut

$List of elements
CQUAD4,1,7,13,1,5,17
CQUAD4,2,7,16,4,8,20
CQUAD4,3,7,17,5,9,21
CQUAD4,4,7,20,8,12,24
CQUAD4,5,7,25,13,17,29
CQUAD4,6,7,28,16,20,32
CQUAD4,7,7,29,17,21,33
CQUAD4,8,7,32,20,24,36
CQUAD4,9,7,37,25,29,41
CQUAD4,10,7,40,28,32,44
CQUAD4,11,7,41,29,33,45
CQUAD4,12,7,44,32,36,48
CQUAD4,13,7,49,37,41,53
CQUAD4,14,7,52,40,44,56
CQUAD4,15,7,53,41,45,57
CQUAD4,16,7,56,44,48,60
CQUAD4,17,7,61,49,53,65
CQUAD4,18,7,64,52,56,68
CQUAD4,19,7,65,53,57,69
CQUAD4,20,7,68,56,60,72
$ ... 890 like lines cut
CTRIA3,911,6,681,680,673
CTRIA3,912,6,689,688,677
CROD,913,13,1,13
CROD,914,13,4,16
CROD,915,13,9,21
CROD,916,13,12,24
CROD,917,13,13,25
CROD,918,13,16,28
CROD,919,13,21,33
CROD,920,13,24,36
CROD,921,13,25,37
CROD,922,13,28,40
CROD,923,13,33,45
CROD,924,13,36,48
CROD,925,13,37,49
CROD,926,13,40,52
CROD,927,13,45,57
CROD,928,13,48,60
CROD,929,13,49,61
CROD,930,13,52,64
CROD,931,13,57,69
CROD,932,13,60,72
$ ... 206 like lines cut
CBAR,1139,33,2,1,-4.2E-05,-2.5E-02,3.1E-20
CBAR,1140,33,3,2,3.0E-05,-2.5E-02,0.0E+00
CBAR,1141,33,4,3,8.5E-07,-2.5E-02,0.0E+00
CBAR,1142,33,10,9,0.0E+00,-2.5E-02,0.0E+00
CBAR,1143,33,11,10,-4.1E-18,-2.5E-02,0.0E+00
CBAR,1144,33,12,11,1.2E-05,-2.5E-02,1.4E-18
CBAR,1145,33,14,13,-5.6E-06,-2.5E-02,-6.3E-19
CBAR,1146,33,15,14,1.5E-07,-2.5E-02,0.0E+00
CBAR,1147,33,16,15,-5.0E-07,-2.5E-02,5.7E-20
CBAR,1148,33,22,21,3.5E-06,2.5E-02,-4.1E-19
CBAR,1149,33,23,22,-4.8E-05,2.5E-02,-3.0E-20
CBAR,1150,33,24,23,-5.7E-06,2.5E-02,-6.6E-19
CBAR,1151,33,26,25,-1.4E-07,-2.5E-02,0.0E+00
CBAR,1152,33,27,26,1.8E-07,-2.5E-02,-9.1E-17
CBAR,1153,33,28,27,-9.5E-07,-2.5E-02,0.0E+00
CBAR,1154,33,34,33,4.2E-07,-2.5E-02,4.8E-20
CBAR,1155,33,35,34,3.3E-06,-2.5E-02,-8.9E-17
CBAR,1156,33,36,35,5.5E-06,-2.5E-02,9.0E-17
CBAR,1157,33,38,37,3.9E-06,-2.5E-02,1.8E-16
CBAR,1158,33,39,38,-1.7E-08,-2.5E-02,1.8E-16
$ ... 1012 like lines cut

$,Displacement,Constraints,of,Load,Set,:,spc1.1

SPC1,1,123,1,THRU,12
SPC1,1,123,61,THRU,64
SPC1,1,123,69,THRU,72

ENDDATA

$List of nodes belonging to the outer skin
$1
$2
$3
$4
$5
$8
$9
$10
$11
$12
$13
$14
$15
$16
$17
$20
$21
$22
$23
$24
$ ... 555 like lines cut
