ID UCRM WING
SOL 3
CEND
MAXLINES=999999999
TITLE=crm_modal_stringers
SPC = 1
$MPC = 1493985
METHOD = 1
VECTOR(PUNCH) = ALL
BEGIN BULK

EIGR,1,{eigr},{F1},{F2},10,{M},,,
,MAX

PARAM,AUTOSPC,1
PARAM,GRDPNT,0

$,Referenced,Material,Records
$,Material,Record,:,mat1.1
$,Description,of,Material,:
MAT1,1,6.89E+10,,.31,0.0
$,Material,Record,:,mat1.2
$,Description,of,Material,:
MAT1,2,6.89E+10,,.31,0.0

LOAD,203,1.0,1.0,201

$,Nodes,of,the,Entire,Model
GRID,1,,{x1},{y1},{z1}
GRID,2,,{x2},{y2},{z2}
GRID,3,,{x3},{y3},{z3}
GRID,4,,{x4},{y4},{z4}
GRID,5,,{x5},{y5},{z5}
GRID,6,,{x6},{y6},{z6}
GRID,7,,{x7},{y7},{z7}
GRID,8,,{x8},{y8},{z8}
GRID,9,,{x9},{y9},{z9}
GRID,10,,{x10},{y10},{z10}
GRID,11,,{x11},{y11},{z11}
GRID,12,,{x12},{y12},{z12}
GRID,13,,{x13},{y13},{z13}
GRID,14,,{x14},{y14},{z14}
GRID,15,,{x15},{y15},{z15}
GRID,16,,{x16},{y16},{z16}
GRID,17,,{x17},{y17},{z17}
GRID,18,,{x18},{y18},{z18}
GRID,19,,{x19},{y19},{z19}
GRID,20,,{x20},{y20},{z20}
$ ... 37 like lines cut

$,Displacement,Constraints,of,Load,Set,:,spc1.1

SPC1,1,1236,1,
SPC1,1,123,6,

PBAR,11,2,{A1},{Ix1},{Iy1},{J1}
PBAR,12,2,{A2},{Ix2},{Iy2},{J2}
PBAR,13,2,{A3},{Ix3},{Iy3},{J3}
PBAR,14,2,{A4},{Ix4},{Iy4},{J4}
PBAR,15,2,{A5},{Ix5},{Iy5},{J5}
PBAR,16,2,{A6},{Ix6},{Iy6},{J6}
PBAR,17,2,{A7},{Ix7},{Iy7},{J7}
PBAR,18,2,{A8},{Ix8},{Iy8},{J8}
PBAR,19,2,{A9},{Ix9},{Iy9},{J9}
PBAR,20,2,{A10},{Ix10},{Iy10},{J10}
PBAR,21,2,{A11},{Ix11},{Iy11},{J11}
PBAR,22,2,{A12},{Ix12},{Iy12},{J12}
PBAR,23,2,{A13},{Ix13},{Iy13},{J13}
PBAR,24,2,{A14},{Ix14},{Iy14},{J14}
PBAR,25,2,{A15},{Ix15},{Iy15},{J15}
PBAR,26,2,{A16},{Ix16},{Iy16},{J16}
PBAR,27,2,{A17},{Ix17},{Iy17},{J17}
PBAR,28,2,{A18},{Ix18},{Iy18},{J18}
PBAR,29,2,{A19},{Ix19},{Iy19},{J19}
PBAR,30,2,{A20},{Ix20},{Iy20},{J20}
$ ... 36 like lines cut

CBAR,2001,11,1,2,1.0E+00,0.0E+00,0.0E+00
CBAR,2002,12,2,3,1.0E+00,0.0E+00,0.0E+00
CBAR,2003,13,3,4,1.0E+00,0.0E+00,0.0E+00
CBAR,2004,14,4,5,1.0E+00,0.0E+00,0.0E+00
CBAR,2005,15,5,6,1.0E+00,0.0E+00,0.0E+00
CBAR,2006,16,6,7,1.0E+00,0.0E+00,0.0E+00
CBAR,2007,17,7,8,1.0E+00,0.0E+00,0.0E+00
CBAR,2008,18,8,9,1.0E+00,0.0E+00,0.0E+00
CBAR,2009,19,9,10,1.0E+00,0.0E+00,0.0E+00
CBAR,2010,20,10,11,1.0E+00,0.0E+00,0.0E+00
CBAR,2011,21,11,12,1.0E+00,0.0E+00,0.0E+00
CBAR,2012,22,12,13,1.0E+00,0.0E+00,0.0E+00
CBAR,2013,23,13,14,1.0E+00,0.0E+00,0.0E+00
CBAR,2014,24,14,15,1.0E+00,0.0E+00,0.0E+00
CBAR,2015,25,15,16,1.0E+00,0.0E+00,0.0E+00
CBAR,2016,26,16,17,1.0E+00,0.0E+00,0.0E+00
CBAR,2017,27,17,18,1.0E+00,0.0E+00,0.0E+00
CBAR,2018,28,18,19,1.0E+00,0.0E+00,0.0E+00
CBAR,2019,29,19,20,1.0E+00,0.0E+00,0.0E+00
CBAR,2020,30,20,21,1.0E+00,0.0E+00,0.0E+00
$ ... 36 like lines cut

CONM2,5001,2,0,{m1},{cgx1},{cgy1},{cgz1}
,{Ixx1},{Iyx1},{Iyy1},{Izx1},{Izy1},{Izz1}
CONM2,5002,3,0,{m2},{cgx2},{cgy2},{cgz2}
,{Ixx2},{Iyx2},{Iyy2},{Izx2},{Izy2},{Izz2}
CONM2,5003,4,0,{m3},{cgx3},{cgy3},{cgz3}
,{Ixx3},{Iyx3},{Iyy3},{Izx3},{Izy3},{Izz3}
CONM2,5004,5,0,{m4},{cgx4},{cgy4},{cgz4}
,{Ixx4},{Iyx4},{Iyy4},{Izx4},{Izy4},{Izz4}
CONM2,5005,6,0,{m5},{cgx5},{cgy5},{cgz5}
,{Ixx5},{Iyx5},{Iyy5},{Izx5},{Izy5},{Izz5}
CONM2,5006,7,0,{m6},{cgx6},{cgy6},{cgz6}
,{Ixx6},{Iyx6},{Iyy6},{Izx6},{Izy6},{Izz6}
CONM2,5007,8,0,{m7},{cgx7},{cgy7},{cgz7}
,{Ixx7},{Iyx7},{Iyy7},{Izx7},{Izy7},{Izz7}
CONM2,5008,9,0,{m8},{cgx8},{cgy8},{cgz8}
,{Ixx8},{Iyx8},{Iyy8},{Izx8},{Izy8},{Izz8}
CONM2,5009,10,0,{m9},{cgx9},{cgy9},{cgz9}
,{Ixx9},{Iyx9},{Iyy9},{Izx9},{Izy9},{Izz9}
CONM2,5010,11,0,{m10},{cgx10},{cgy10},{cgz10}
,{Ixx10},{Iyx10},{Iyy10},{Izx10},{Izy10},{Izz10}
CONM2,5011,12,0,{m11},{cgx11},{cgy11},{cgz11}
,{Ixx11},{Iyx11},{Iyy11},{Izx11},{Izy11},{Izz11}
CONM2,5012,13,0,{m12},{cgx12},{cgy12},{cgz12}
,{Ixx12},{Iyx12},{Iyy12},{Izx12},{Izy12},{Izz12}
CONM2,5013,14,0,{m13},{cgx13},{cgy13},{cgz13}
,{Ixx13},{Iyx13},{Iyy13},{Izx13},{Izy13},{Izz13}
CONM2,5014,15,0,{m14},{cgx14},{cgy14},{cgz14}
,{Ixx14},{Iyx14},{Iyy14},{Izx14},{Izy14},{Izz14}
CONM2,5015,16,0,{m15},{cgx15},{cgy15},{cgz15}
,{Ixx15},{Iyx15},{Iyy15},{Izx15},{Izy15},{Izz15}
CONM2,5016,17,0,{m16},{cgx16},{cgy16},{cgz16}
,{Ixx16},{Iyx16},{Iyy16},{Izx16},{Izy16},{Izz16}
CONM2,5017,18,0,{m17},{cgx17},{cgy17},{cgz17}
,{Ixx17},{Iyx17},{Iyy17},{Izx17},{Izy17},{Izz17}
CONM2,5018,19,0,{m18},{cgx18},{cgy18},{cgz18}
,{Ixx18},{Iyx18},{Iyy18},{Izx18},{Izy18},{Izz18}
CONM2,5019,20,0,{m19},{cgx19},{cgy19},{cgz19}
,{Ixx19},{Iyx19},{Iyy19},{Izx19},{Izy19},{Izz19}
CONM2,5020,21,0,{m20},{cgx20},{cgy20},{cgz20}
,{Ixx20},{Iyx20},{Iyy20},{Izx20},{Izy20},{Izz20}
$ ... 72 like lines cut

ENDDATA
