ID UCRM WING
SOL 3
CEND
MAXLINES=999999999
TITLE=crm_modal_stringers
SPC = 1
$MPC = 1493985
METHOD = 1
VECTOR(PUNCH) = ALL
BEGIN BULK

EIGR,1,{eigr},{F1},{F2},10,{M},,,
,MAX

PARAM,AUTOSPC,1
PARAM,GRDPNT,0

PBAR,30,2,{s1},{Ix1},{Iy1}
PBAR,31,2,{s2},{Ix2},{Iy2}
PBAR,32,2,{s3},{Ix3},{Iy3}
PBAR,33,2,{s4},{Ix4},{Iy4}
PBAR,34,2,{s5},{Ix5},{Iy5}
PBAR,35,2,{s6},{Ix6},{Iy6}

PSHELL,1,1,{t1},1,,1
PSHELL,2,1,{t2},1,,1
PSHELL,3,1,{t3},1,,1
PSHELL,4,1,{t4},1,,1
PSHELL,5,1,{t5},1,,1
PSHELL,6,1,{t6},1,,1
PSHELL,7,1,{t7},1,,1
PSHELL,8,1,{t8},1,,1
PSHELL,9,1,{t9},1,,1
PSHELL,10,1,{t10},1,,1
PSHELL,11,1,{t11},1,,1
PSHELL,12,1,{t12},1,,1

$,Referenced,Material,Records
$,Material,Record,:,mat1.1
$,Description,of,Material,:
MAT1,1,6.89E+10,,.31,2795.67
$,Material,Record,:,mat1.2
$,Description,of,Material,:
MAT1,2,6.89E+10,,.31,2795.67

CBAR,16653,30,2513,4506,.0254,2.081E-7,-1.3E-10
CBAR,18026,30,4359,1939,.0254,2.081E-7,-1.3E-10
CBAR,18027,30,1939,4462,.0254,2.081E-7,-1.3E-10
CBAR,18028,30,4462,2694,.0254,2.081E-7,-1.3E-10
CBAR,18029,30,2694,4512,.0254,2.081E-7,-1.3E-10
CBAR,18030,30,4512,2025,.0254,2.081E-7,-1.3E-10
CBAR,18031,30,2025,4556,.0254,2.081E-7,-1.3E-10
CBAR,18032,30,4556,2797,.0254,2.081E-7,-1.3E-10
CBAR,18033,30,2797,4557,.0254,2.081E-7,-1.3E-10
CBAR,18035,30,1973,4550,.0254,2.081E-7,-1.3E-10
CBAR,18036,30,4550,1405,.0254,2.081E-7,-1.3E-10
CBAR,18037,30,1405,4494,.0254,2.081E-7,-1.3E-10
CBAR,18038,30,4494,2286,.0254,2.081E-7,-1.3E-10
CBAR,18039,30,2286,4446,.0254,2.081E-7,-1.3E-10
CBAR,1556578,30,2651,3262,-.0254,0.,0.
CBAR,1556579,30,3262,1952,-.0254,0.,0.
CBAR,1556580,30,1952,3260,-.0254,0.,0.
CBAR,1556581,30,3260,2680,-.0254,0.,0.
CBAR,1556582,30,2680,3258,-.0254,0.,0.
CBAR,1556583,30,3258,2011,-.0254,0.,0.
$ ... 5120 like lines cut
CBAR,1561220,33,993,3086,-5.E-7,-.0254,5.69E-20
CBAR,1561221,33,3086,6482,-4.04E-7,-.0254,-4.6E-17
CBAR,1561222,33,6482,6480,-3.05E-7,-.0254,0.
CBAR,1561223,33,6480,6478,-2.37E-7,-.0254,-2.8E-20
CBAR,1561224,33,6478,6476,-1.75E-7,-.0254,-4.6E-17
CBAR,1561225,33,6476,6474,-4.83E-5,-.0254,-3.E-20
CBAR,1561226,33,6474,6472,5.057E-6,-.0254,-5.8E-19
CBAR,1561227,33,6472,6470,4.389E-5,-.0254,-4.1E-17
CBAR,1561228,33,6470,6468,1.53E-7,-.0254,0.
CBAR,1561229,33,6468,6466,-4.27E-5,-.0254,-4.6E-17
CBAR,1561230,33,6466,6464,-9.3E-6,-.0254,4.52E-17
CBAR,1561231,33,6464,6462,2.153E-6,-.0254,0.
CBAR,1561232,33,6462,6460,7.257E-6,-.0254,0.
CBAR,1561233,33,6460,6459,4.384E-5,-.0254,5.E-18
CBAR,1561234,33,6459,6457,-4.04E-5,-.0254,4.06E-17
CBAR,1561235,33,6457,6455,4.092E-5,-.0254,-4.1E-17
CBAR,1561236,33,6455,6452,-3.02E-6,-.0254,4.47E-17
CBAR,1561237,33,6452,6450,-5.56E-6,-.0254,-6.3E-19
CBAR,1561238,33,6450,6448,5.723E-6,-.0254,-4.6E-17
CBAR,1561239,33,6448,6446,-4.57E-7,-.0254,4.5E-17
CBAR,1561240,33,6446,6444,-9.27E-7,-.0254,0.
CBAR,1561241,33,6444,6442,-5.03E-6,-.0254,3.89E-21
CBAR,1561242,33,6442,6441,4.125E-6,-.0254,4.52E-17
CBAR,1561243,33,6441,3041,-2.56E-6,-.0254,4.52E-17
CBAR,1561244,33,3041,6752,3.995E-6,-.0254,4.52E-17
CBAR,1561245,33,6752,6753,-7.34E-8,-.0254,4.52E-17
CBAR,1561246,33,9057,7584,-4.55E-7,-.0254,0.
CBAR,1561247,33,7584,1282,-9.53E-7,-.0254,0.
CBAR,1561248,33,1282,6352,-3.5E-7,-.0254,3.99E-20
CBAR,1561249,33,6352,6351,-2.59E-7,-.0254,9.02E-17
CBAR,1561250,33,6351,6348,-1.94E-7,-.0254,-2.2E-20
CBAR,1561251,33,6348,6347,-1.35E-7,-.0254,1.54E-20
CBAR,1561252,33,6347,6344,-7.62E-8,-.0254,8.69E-21
CBAR,1561253,33,6344,6342,-4.57E-6,-.0254,8.97E-17
$ ... 12 like lines cut
CBAR,1561266,33,6318,6316,-2.64E-7,-.0254,-3.E-20
CBAR,1561267,33,6316,6314,-2.54E-7,-.0254,9.02E-17
CBAR,1561268,33,6314,6312,-2.03E-7,-.0254,0.
CBAR,1561269,33,6312,6311,-7.42E-8,-.0254,-9.1E-17
CBAR,1561270,33,6311,1236,1.22E-7,-.0254,-9.1E-17
CBAR,1561271,33,1236,9034,3.853E-7,-.0254,9.02E-17
CBAR,1561272,33,9034,9270,-4.65E-7,-.0254,-9.1E-17
CBAR,1561273,33,9054,8665,-2.25E-6,-.0254,1.19E-21
CBAR,1561274,33,8665,3117,-3.79E-7,-.0254,1.8E-16
CBAR,1561275,33,3117,6504,1.256E-7,-.0254,1.81E-16
CBAR,1561276,33,6504,6503,-2.85E-6,-.0254,3.23E-19
CBAR,1561277,33,6503,6501,-3.68E-7,-.0254,-1.8E-16
CBAR,1561278,33,6501,6498,3.345E-6,-.0254,1.81E-16
CBAR,1561279,33,6498,6747,5.532E-7,-.0254,-1.8E-16
CBAR,1561280,33,6747,6497,-9.68E-7,-.0254,1.81E-16
CBAR,1561281,33,6497,6495,-1.81E-7,-.0254,-1.8E-16
CBAR,1561282,33,6495,6491,-1.72E-8,-.0254,1.81E-16
CBAR,1561283,33,6491,6492,2.172E-8,-.0254,-1.8E-16
CBAR,1561284,33,6492,6587,-3.58E-7,-.0254,4.06E-20
CBAR,1561285,33,6587,6589,9.444E-8,-.0254,0.
CBAR,1561286,33,6589,6591,-1.96E-6,-.0254,-1.8E-16
$ ... 25 like lines cut
CBAR,1561312,33,6415,6416,-8.E-7,.0254,0.
CBAR,1561313,33,6416,6418,-1.57E-7,.0254,-1.8E-20
CBAR,1561314,33,6418,6420,-1.49E-7,.0254,-1.8E-16
CBAR,1561315,33,6420,6422,3.315E-7,.0254,1.81E-16
CBAR,1561316,33,6422,6425,-2.29E-7,.0254,0.
CBAR,1561317,33,6425,6426,-1.94E-7,.0254,0.
CBAR,1561318,33,6426,6428,9.098E-8,.0254,-1.8E-16
CBAR,1561319,33,6428,6430,1.404E-7,.0254,-1.6E-20
CBAR,1561320,33,6430,6432,2.741E-5,.0254,-3.3E-20
CBAR,1561321,33,6432,6434,3.965E-6,.0254,4.55E-19
CBAR,1561322,33,6434,6437,-9.14E-5,.0253999,-1.8E-16
CBAR,1561323,33,6437,6438,6.37E-6,.0254,-1.8E-16
CBAR,1561324,33,6438,2623,3.741E-5,.0254,1.85E-16
CBAR,1561325,33,2623,17,3.97E-7,.0254,-1.8E-16
CBAR,1561326,33,17,9051,2.868E-6,.0254,-1.3E-21
CBAR,1561327,33,9050,15,-1.73E-6,-.0254,0.
CBAR,1561328,33,15,2572,9.86E-7,-.0254,1.81E-16
CBAR,1561329,33,2572,6395,1.464E-5,-.0254,0.
CBAR,1561330,33,6395,6393,8.717E-7,-.0254,-9.9E-20
CBAR,1561331,33,6393,6391,8.717E-7,-.0254,0.
CBAR,1561332,33,6391,6183,8.717E-7,-.0254,-1.8E-16
$ ... 38 like lines cut
CBAR,1561483,33,6733,6691,1.723E-5,-.0254,-2.E-18
CBAR,1561484,33,6691,6688,-5.92E-7,-.0254,-6.6E-20
CBAR,1561485,33,6688,6729,-5.36E-7,-.0254,1.81E-16
CBAR,1561486,33,6729,6727,-9.58E-7,-.0254,0.
CBAR,1561487,33,6727,6488,-4.45E-5,-.0254,1.75E-16
CBAR,1561488,33,6488,6486,9.253E-5,-.025399,0.
CBAR,1561489,33,6486,6484,8.748E-5,-.025399,1.9E-16
CBAR,1561490,33,6484,3092,5.791E-5,-.025399,1.81E-16
CBAR,1561491,33,3092,182,-3.15E-5,-.0254,3.58E-18
CBAR,1561492,33,182,6774,2.534E-5,-.0254,1.83E-16
CBAR,1561493,33,9207,49,1.032E-5,.0254,-1.2E-18
CBAR,1561494,33,49,2578,2.216E-5,.0254,-2.5E-18
CBAR,1561495,33,2578,6396,2.814E-6,.0254,1.8E-16
CBAR,1561496,33,6396,6399,2.396E-6,.0254,-2.2E-21
CBAR,1561497,33,6399,6401,1.999E-6,.0254,1.81E-16
CBAR,1561498,33,6401,6403,1.577E-6,.0254,1.81E-16
CBAR,1561499,33,6403,6405,1.108E-6,.0254,1.25E-19
CBAR,1561500,33,6405,6407,-2.44E-5,.0254,-1.8E-16
CBAR,1561501,33,6407,6409,.0000251,.0254,2.85E-18
CBAR,1561502,33,6409,6411,-2.92E-7,.0254,1.8E-16
CBAR,1561503,33,6411,6413,-7.01E-7,.0254,0.
CBAR,1561504,33,6413,6414,-1.09E-6,.0254,-1.8E-16
CBAR,1561505,33,6414,6417,-1.45E-6,.0254,1.66E-19
CBAR,1561506,33,6417,6419,-1.79E-6,.0254,-2.E-19
CBAR,1561507,33,6419,6421,-2.1E-6,.0254,-2.4E-19
CBAR,1561508,33,6421,6423,-6.96E-5,.0253999,0.
CBAR,1561509,33,6423,6424,4.445E-5,.0254,-1.8E-16
CBAR,1561510,33,6424,6427,8.656E-6,.0254,7.77E-21
CBAR,1561511,33,6427,6429,3.284E-6,.0254,-1.8E-16
CBAR,1561512,33,6429,6431,-1.27E-6,.0254,-1.8E-16
CBAR,1561513,33,6431,6433,-3.76E-5,.0254,3.1E-20
CBAR,1561514,33,6433,6435,.0000188,.0254,1.83E-16
CBAR,1561515,33,6435,6436,-5.31E-5,.0254,1.81E-16
CBAR,1561516,33,6436,6439,2.606E-6,.0254,-3.E-19
CBAR,1561517,33,6439,2624,3.434E-5,.0254,-3.8E-18
CBAR,1561518,33,2624,18,-4.32E-6,.0254,0.
CBAR,1561519,33,18,8373,-3.5E-6,.0254,-1.8E-16
CBAR,1561520,33,7588,7587,3.429E-6,-.0254,-2.5E-21
CBAR,1561521,33,7587,1283,5.494E-6,-.0254,9.02E-17
CBAR,1561522,33,1283,6353,1.547E-5,-.0254,-8.9E-17
CBAR,1561523,33,6353,6350,-9.3E-6,-.0254,9.12E-17
CBAR,1561524,33,6350,6349,1.937E-6,-.0254,2.E-21
CBAR,1561525,33,6349,6346,1.687E-6,-.0254,1.92E-19
CBAR,1561526,33,6346,6345,7.976E-6,-.0254,-9.1E-17
CBAR,1561527,33,6345,6343,-5.44E-7,-.0254,9.02E-17
CBAR,1561528,33,6343,6340,3.439E-6,-.0254,3.94E-19
CBAR,1561529,33,6340,6338,3.302E-6,-.0254,-8.9E-17
CBAR,1561530,33,6338,6337,3.129E-6,-.0254,3.58E-19
CBAR,1561531,33,6337,6335,2.931E-6,-.0254,3.33E-19
CBAR,1561532,33,6335,6333,2.654E-6,-.0254,1.96E-21
CBAR,1561533,33,6333,6331,2.068E-6,-.0254,0.
CBAR,1561534,33,6331,6328,2.35E-6,-.0254,8.99E-17
CBAR,1561535,33,6328,6327,1.688E-6,-.0254,1.95E-21
CBAR,1561536,33,6327,6325,1.277E-6,-.0254,1.46E-19
CBAR,1561537,33,6325,6322,8.616E-7,-.0254,-8.9E-17
CBAR,1561538,33,6322,6321,4.183E-7,-.0254,4.75E-20
CBAR,1561539,33,6321,6319,-2.64E-8,-.0254,-3.E-21
CBAR,1561540,33,6319,6317,-4.88E-7,-.0254,9.02E-17
CBAR,1561541,33,6317,6315,-9.6E-7,-.0254,-9.1E-17
CBAR,1561542,33,6315,6313,-1.39E-6,-.0254,-1.6E-19
CBAR,1561543,33,6313,6310,-1.87E-6,-.0254,-9.1E-17
CBAR,1561544,33,6310,1237,-2.37E-6,-.0254,9.04E-17
CBAR,1561545,33,1237,180,-3.45E-5,-.0254,3.94E-18
CBAR,1561546,33,180,6895,-.00003,-.0254,9.37E-17
CBAR,1561547,33,8616,99,.0000352,.0254,-4.1E-18
CBAR,1561548,33,99,3042,2.659E-5,.0254,-4.8E-17
CBAR,1561549,33,3042,6440,-1.54E-5,.0254,0.
CBAR,1561550,33,6440,6443,-1.13E-6,.0254,-1.3E-19
CBAR,1561551,33,6443,6445,3.254E-6,.0254,0.
CBAR,1561552,33,6445,6447,-5.46E-6,.0254,-4.6E-17
CBAR,1561553,33,6447,6449,5.118E-6,.0254,5.82E-19
CBAR,1561554,33,6449,6451,-4.45E-6,.0254,-5.1E-19
CBAR,1561555,33,6451,6453,1.515E-5,.0254,-4.6E-17
CBAR,1561556,33,6453,6454,3.526E-6,.0254,-4.1E-19
CBAR,1561557,33,6454,6456,-3.79E-5,.0254,4.09E-17
CBAR,1561558,33,6456,6458,3.924E-5,.0254,4.52E-17
CBAR,1561559,33,6458,6461,-4.62E-5,.0254,4.52E-17
$ ... 5 like lines cut
CBAR,1561565,33,6471,6473,-4.8E-5,.0254,-3.E-20
CBAR,1561566,33,6473,6475,-7.49E-6,.0254,-4.3E-17
CBAR,1561567,33,6475,6477,-2.87E-6,.0254,-4.6E-17
CBAR,1561568,33,6477,6479,2.939E-7,.0254,3.38E-20
CBAR,1561569,33,6479,6481,7.33E-6,.0254,0.
CBAR,1561570,33,6481,6483,1.44E-6,.0254,-1.6E-19
CBAR,1561571,33,6483,24,1.532E-5,.0254,0.
CBAR,1561572,33,24,82,-3.99E-6,.0254,-4.6E-19
CBAR,1561573,33,82,8647,-5.69E-6,.0254,-6.6E-19
CBAR,1561574,33,8904,81,-4.88E-7,-.0254,5.56E-20
CBAR,1561575,33,81,901,1.199E-5,-.0254,1.36E-18
CBAR,1561576,33,901,6289,1.288E-6,-.0254,1.47E-19
CBAR,1561577,33,6289,6290,3.038E-5,-.0254,-3.3E-20
CBAR,1561578,33,6290,6292,2.201E-5,-.0254,0.
CBAR,1561579,33,6292,6294,1.696E-5,-.0254,1.6E-20
CBAR,1561580,33,6294,6296,-1.93E-5,-.0254,4.8E-20
CBAR,1561581,33,6296,6298,-1.8E-5,-.0254,0.
CBAR,1561582,33,6298,6300,-4.12E-5,-.0254,-4.6E-18
CBAR,1561583,33,6300,6302,-4.1E-18,-.0254,0.
CBAR,1561584,33,6302,6304,-2.18E-5,-.0254,2.46E-18
CBAR,1561585,33,6304,6306,-6.63E-5,-.025399,0.
$ ... 11 like lines cut
CBAR,1561597,33,6269,6266,-5.03E-5,-.0254,-3.E-20
CBAR,1561598,33,6266,873,4.379E-5,-.0254,-5.1E-18
CBAR,1561599,33,873,98,-3.89E-6,-.0254,-4.3E-19
CBAR,1561600,33,98,6918,-2.13E-5,-.0254,2.42E-18
CBAR,1561921,33,7554,7553,-.015267,-.020299,2.31E-15
CBAR,1561922,33,7553,1231,-.015274,-.020294,1.74E-15
CBAR,1561923,33,1231,1227,-.015204,-.020346,-1.1E-15
CBAR,1561924,33,1227,1225,-.015324,-.020256,1.74E-15
CBAR,1561925,33,1225,1223,-.015268,-.020298,1.74E-15
CBAR,1561926,33,1223,1221,-.015307,-.020269,-1.8E-15
CBAR,1561927,33,1221,1219,-.015271,-.020296,1.73E-15
CBAR,1561928,33,1219,1217,-.01527,-.020297,0.
CBAR,1561929,33,1217,1215,-.015261,-.020304,-1.1E-15
CBAR,1561930,33,1215,1213,-.015279,-.02029,-1.8E-15
CBAR,1561931,33,1213,1211,-.01527,-.020296,-1.7E-15
CBAR,1561932,33,1211,1209,-.01527,-.020297,-1.7E-15
CBAR,1561933,33,1209,1207,-.01527,-.020297,1.75E-15
CBAR,1561934,33,1207,1205,-.01527,-.020297,-2.3E-15
CBAR,1561935,33,1205,1203,-.01527,-.020296,-5.3E-18
CBAR,1561936,33,1203,1201,-.01527,-.020297,-1.7E-15
CBAR,1561937,33,1201,1199,-.015271,-.020296,1.16E-15
$ ... 364 like lines cut
CBAR,1565397,33,7030,8894,.0028638,.0252381,-3.E-17
CBAR,1565398,33,6953,6956,-.004208,-.025049,3.58E-16
CBAR,1565399,33,6956,356,-.004209,-.025048,0.
CBAR,1565400,33,356,6259,-.004208,-.025048,-8.4E-16
CBAR,1565401,33,6259,6261,-.004208,-.025048,0.
CBAR,1565402,33,6261,6263,-.004208,-.025048,0.
CBAR,1565403,33,6263,362,-.004208,-.025048,-3.6E-16
CBAR,1565404,33,362,364,-.004208,-.025048,0.
CBAR,1565405,33,364,366,-.004208,-.025048,-3.6E-18
CBAR,1565406,33,366,368,-.004208,-.025048,-3.6E-18
CBAR,1565407,33,368,370,-.004208,-.025048,0.
CBAR,1565408,33,370,372,-.004208,-.025048,3.58E-16
CBAR,1565409,33,372,374,-.004208,-.025048,0.
CBAR,1565410,33,374,376,-.004208,-.025048,3.56E-16
CBAR,1565411,33,376,378,-.004208,-.025048,-3.6E-18
CBAR,1565412,33,378,380,-.004208,-.025048,-8.4E-16
CBAR,1565413,33,380,382,-.004208,-.025048,4.75E-16
CBAR,1565414,33,382,384,-.004208,-.025048,0.
CBAR,1565415,33,384,386,-.004208,-.025048,0.
CBAR,1565416,33,386,388,-.004208,-.025048,-8.4E-16
CBAR,1565417,33,388,390,-.004208,-.025048,3.53E-16
$ ... 177 like lines cut
CBAR,1565595,33,522,524,.0074292,.0242892,5.E-16
CBAR,1565596,33,524,526,.0074292,.0242892,3.45E-16
CBAR,1565597,33,526,528,.0074292,.0242892,3.48E-16
CBAR,1565598,33,528,530,.0074292,.0242892,-5.1E-16
CBAR,1565599,33,530,532,.0074292,.0242892,0.
CBAR,1565600,33,532,534,.0074292,.0242892,-8.4E-16
CBAR,1565601,33,534,536,.0074292,.0242892,-8.4E-16
CBAR,1565602,33,536,538,.0074292,.0242892,-5.1E-16
CBAR,1565603,33,538,540,.0074548,.0242814,0.
CBAR,1565604,33,540,542,.0074039,.024297,4.95E-16
CBAR,1565605,33,542,544,.0074292,.0242892,-8.4E-16
CBAR,1565606,33,544,546,.0074292,.0242892,0.
CBAR,1565607,33,546,548,.0074292,.0242892,3.5E-16
CBAR,1565608,33,548,550,.0074292,.0242892,1.19E-15
CBAR,1565609,33,550,552,.0074292,.0242892,4.93E-16
CBAR,1565610,33,552,554,.0074292,.0242892,0.
CBAR,1565611,33,554,558,.0074292,.0242892,8.43E-16
CBAR,1565612,33,558,7155,.0075238,.0242601,5.11E-16
CBAR,1565613,33,7155,7158,.0073322,.0243187,-3.3E-16
CBAR,1565614,33,6937,6940,-.008578,-.023907,6.35E-16
CBAR,1565615,33,6940,564,-.008806,-.023824,-3.3E-16
$ ... 19 like lines cut
CBAR,1565635,33,599,601,-.008692,-.023866,-3.E-16
CBAR,1565636,33,601,603,-.008692,-.023866,6.86E-16
CBAR,1565637,33,603,605,-.008692,-.023866,-5.8E-18
CBAR,1565638,33,605,609,-.008692,-.023866,-6.9E-18
CBAR,1565639,33,609,7185,-.008692,-.023866,-9.9E-16
CBAR,1565640,33,7185,7187,-.008692,-.023866,-6.9E-16
CBAR,1565641,33,9198,200,.0086932,.0238661,6.78E-16
CBAR,1565642,33,200,610,.0086924,.0238663,6.76E-16
CBAR,1565643,33,610,606,.0086928,.0238662,0.
CBAR,1565644,33,606,604,.0086928,.0238662,0.
CBAR,1565645,33,604,602,.0086928,.0238662,-9.9E-16
CBAR,1565646,33,602,600,.0086928,.0238662,9.83E-16
CBAR,1565647,33,600,598,.0086928,.0238662,-9.9E-16
CBAR,1565648,33,598,596,.0086928,.0238662,9.88E-16
CBAR,1565649,33,596,593,.0086928,.0238662,0.
CBAR,1565650,33,593,591,.0086928,.0238662,-6.3E-18
CBAR,1565651,33,591,589,.0086928,.0238662,0.
CBAR,1565652,33,589,587,.0086928,.0238662,-6.3E-16
CBAR,1565653,33,587,585,.0086928,.0238662,-3.3E-16
CBAR,1565654,33,585,583,.0086928,.0238662,-9.9E-16
CBAR,1565655,33,583,582,.0086928,.0238662,0.
$ ... 124 like lines cut
CBAR,1565780,33,721,724,-.012551,-.022082,-3.E-16
CBAR,1565781,33,724,726,-.012551,-.022082,0.
CBAR,1565782,33,726,728,-.012551,-.022082,6.27E-16
CBAR,1565783,33,728,730,-.012551,-.022082,0.
CBAR,1565784,33,730,732,-.012551,-.022082,-6.3E-16
CBAR,1565785,33,732,734,-.012551,-.022082,-5.8E-18
CBAR,1565786,33,734,736,-.012551,-.022082,-5.8E-18
CBAR,1565787,33,736,738,-.012551,-.022082,-1.4E-15
CBAR,1565788,33,738,740,-.012551,-.022082,-1.4E-15
CBAR,1565789,33,740,742,-.012551,-.022082,6.3E-16
CBAR,1565790,33,742,744,-.012551,-.022082,0.
CBAR,1565791,33,744,746,-.012551,-.022082,-6.3E-16
CBAR,1565792,33,746,748,-.012551,-.022082,5.38E-18
CBAR,1565793,33,748,750,-.012551,-.022082,-2.1E-15
CBAR,1565794,33,750,752,-.012551,-.022082,-6.3E-16
CBAR,1565795,33,752,754,-.012551,-.022082,-1.4E-15
CBAR,1565796,33,754,756,-.012551,-.022082,-6.3E-16
CBAR,1565797,33,756,758,-.012551,-.022082,8.08E-16
CBAR,1565798,33,758,760,-.012551,-.022082,1.43E-15
CBAR,1565799,33,760,762,-.012551,-.022082,5.03E-18
CBAR,1565800,33,762,766,-.012551,-.022082,-6.1E-16
$ ... 24 like lines cut
CBAR,1565825,33,723,722,.0125514,.0220822,-3.E-16
CBAR,1565826,33,722,719,.0125514,.0220822,1.74E-15
CBAR,1565827,33,719,720,.0125514,.0220822,-1.4E-15
CBAR,1565828,33,720,6928,.0126424,.0220302,-4.8E-18
CBAR,1565829,33,6928,6925,.01246,.0221339,-1.1E-15
CBAR,1565830,33,6929,6932,-.013904,-.021256,-1.6E-15
CBAR,1565831,33,6932,667,-.014031,-.021172,-1.9E-15
CBAR,1565832,33,667,666,-.013968,-.021214,1.28E-15
CBAR,1565833,33,666,669,-.013968,-.021214,-9.9E-16
CBAR,1565834,33,669,671,-.013968,-.021214,9.96E-16
CBAR,1565835,33,671,673,-.013968,-.021214,-6.1E-16
CBAR,1565836,33,673,675,-.013968,-.021214,0.
CBAR,1565837,33,675,677,-.013968,-.021214,-1.6E-15
CBAR,1565838,33,677,679,-.013968,-.021214,-1.6E-15
CBAR,1565839,33,679,681,-.013968,-.021214,-5.8E-18
CBAR,1565840,33,681,683,-.013968,-.021214,5.69E-18
CBAR,1565841,33,683,685,-.013968,-.021214,-5.6E-18
CBAR,1565842,33,685,687,-.013968,-.021214,-5.6E-18
CBAR,1565843,33,687,689,-.013968,-.021214,-1.1E-17
CBAR,1565844,33,689,691,-.013968,-.021214,0.
CBAR,1565845,33,691,693,-.013968,-.021214,6.1E-16
$ ... 1742 like lines cut
CBAR,1568290,33,11080,11081,.0098986,.0233919,-3.E-21
CBAR,1568291,33,11081,662,.0098986,.0233919,1.12E-15
CBAR,1568292,33,7215,7214,.0098981,.0233921,-3.63E-7
CBAR,1568293,33,7214,11457,.0098981,.0233921,-3.63E-7
CBAR,1568294,33,11457,11458,.0098981,.0233921,-3.63E-7
CBAR,1568295,33,11458,202,.0098981,.0233921,-3.63E-7
CBAR,1556496,34,6267,6510,-.0254,0.,0.
CBAR,1556497,34,6510,6441,-.0254,0.,0.
CBAR,1556498,34,6441,6509,-.0254,0.,0.
CBAR,1556499,34,6509,6311,-.0254,0.,0.
CBAR,1556500,34,6311,6508,-.0254,0.,0.
CBAR,1556501,34,6508,6485,-.0254,0.,0.
CBAR,1556502,34,6485,6507,-.0254,0.,0.
CBAR,1556503,34,6507,6397,-.0254,0.,0.
CBAR,1556504,34,6397,6506,-.0254,0.,0.
CBAR,1556505,34,6506,6355,-.0254,0.,0.
CBAR,1556530,34,1182,4001,-.0254,0.,0.
CBAR,1556531,34,4001,2219,-.0254,0.,0.
CBAR,1556532,34,2219,3999,-.0254,0.,0.
CBAR,1556533,34,3999,231,-.0254,0.,0.
CBAR,1556534,34,231,232,-.0254,0.,0.
$ ... 917 like lines cut
CBAR,1565913,34,669,1225,-.023669,.0092139,-3.E-15
CBAR,1565914,34,6391,6190,-.023554,.0095039,2.69E-15
CBAR,1565915,34,6190,6253,-.023557,.0094969,0.
CBAR,1565916,34,6253,6263,-.023556,.0095009,-1.4E-16
CBAR,1565917,34,6263,446,-.023556,.0095014,1.09E-17
CBAR,1565918,34,446,464,-.023557,.0094988,0.
CBAR,1565919,34,464,550,-.023557,.009498,2.79E-15
CBAR,1565920,34,550,568,-.023555,.009502,-2.8E-15
CBAR,1565921,34,568,620,-.023556,.0094996,1.32E-16
CBAR,1565922,34,620,810,-.023556,.0095005,1.35E-16
CBAR,1565923,34,810,723,-.023556,.0094999,-2.8E-15
CBAR,1565924,34,723,671,-.023556,.0094997,2.67E-15
CBAR,1565925,34,671,1223,-.023558,.0094942,-3.E-15
CBAR,1565926,34,6183,6182,-.023438,.0097874,-6.6E-17
CBAR,1565927,34,6182,6251,-.023435,.0097941,2.67E-15
CBAR,1565928,34,6251,362,-.023439,.0097865,-2.5E-15
CBAR,1565929,34,362,444,-.023447,.0097659,2.53E-15
CBAR,1565930,34,444,466,-.023441,.0097797,-2.5E-15
CBAR,1565931,34,466,548,-.023445,.0097702,-1.5E-16
CBAR,1565932,34,548,570,-.023435,.0097956,1.39E-16
CBAR,1565933,34,570,622,-.023441,.0097798,1.25E-16
CBAR,1565934,34,622,808,-.023443,.0097759,2.79E-15
CBAR,1565935,34,808,725,-.023439,.0097861,2.67E-15
CBAR,1565936,34,725,673,-.023438,.009787,2.82E-16
CBAR,1565937,34,673,1221,-.023444,.0097736,-2.8E-16
CBAR,1565938,34,6389,6192,-.023319,.0100677,-2.8E-15
CBAR,1565939,34,6192,6249,-.023316,.0100758,1.46E-16
CBAR,1565940,34,6249,364,-.023318,.0100698,2.79E-15
CBAR,1565941,34,364,442,-.023326,.0100511,2.51E-15
CBAR,1565942,34,442,468,-.023329,.0100452,2.51E-15
CBAR,1565943,34,468,546,-.023325,.0100544,-1.1E-17
CBAR,1565944,34,546,572,-.023322,.0100606,1.54E-16
CBAR,1565945,34,572,624,-.023323,.0100596,-1.4E-16
$ ... 147 like lines cut
CBAR,1566093,34,699,1195,-.021782,.0130642,-3.E-17
CBAR,1566094,34,6363,6218,-.021648,.013285,2.39E-15
CBAR,1566095,34,6218,312,-.021651,.0132808,2.47E-15
CBAR,1566096,34,312,390,-.021649,.0132836,-2.5E-15
CBAR,1566097,34,390,416,-.02165,.0132823,-2.3E-15
CBAR,1566098,34,416,494,-.02165,.0132815,2.46E-15
CBAR,1566099,34,494,520,-.021649,.0132833,-2.E-16
CBAR,1566100,34,520,597,-.02165,.0132819,-1.9E-16
CBAR,1566101,34,597,649,-.021651,.01328,-2.8E-15
CBAR,1566102,34,649,779,-.02165,.0132824,-3.8E-16
CBAR,1566103,34,779,753,-.021647,.0132865,2.1E-15
CBAR,1566104,34,753,701,-.021649,.0132836,-2.4E-15
CBAR,1566105,34,701,1193,-.021651,.0132808,0.
CBAR,1566106,34,6361,6220,-.021513,.013503,1.14E-16
CBAR,1566107,34,6220,310,-.021516,.0134986,-2.4E-15
CBAR,1566108,34,310,392,-.021513,.0135023,-2.4E-15
CBAR,1566109,34,392,414,-.021514,.0135011,2.25E-15
CBAR,1566110,34,414,496,-.021515,.0134997,-2.3E-15
CBAR,1566111,34,496,518,-.021515,.0134993,1.76E-16
CBAR,1566112,34,518,599,-.021514,.0135008,2.07E-16
CBAR,1566113,34,599,651,-.021513,.0135035,2.45E-15
CBAR,1566114,34,651,777,-.021514,.0135014,0.
CBAR,1566115,34,777,755,-.021514,.013501,0.
CBAR,1566116,34,755,703,-.021515,.0135005,0.
CBAR,1566117,34,703,1191,-.021515,.0135006,2.82E-15
CBAR,1566118,34,6359,6222,-.021377,.0137167,2.27E-15
CBAR,1566119,34,6222,308,-.021379,.0137145,1.59E-17
$ ... 4155 like lines cut
CBAR,1563262,35,56,3578,-.015523,-.020104,-3.E-18
CBAR,1563263,35,3578,1910,-.015063,-.020451,-1.2E-15
CBAR,1563264,35,1910,1911,-.015308,-.020268,0.
CBAR,1563265,35,1911,1914,-.015392,-.020204,2.97E-18
CBAR,1563266,35,1914,1916,-.015264,-.020301,-1.1E-15
CBAR,1563267,35,1916,1918,-.015255,-.020308,1.73E-15
CBAR,1563268,35,1918,1920,-.015318,-.020261,-1.8E-15
CBAR,1563269,35,1920,1922,-.015223,-.020332,2.92E-18
CBAR,1563270,35,1922,1924,-.01531,-.020267,0.
CBAR,1563271,35,1924,1926,-.015281,-.020289,1.74E-15
CBAR,1563272,35,1926,1928,-.015267,-.020299,2.92E-18
CBAR,1563273,35,1928,1930,-.015262,-.020303,1.74E-15
CBAR,1563274,35,1930,1932,-.01527,-.020296,-2.8E-18
CBAR,1563275,35,1932,1934,-.01528,-.020289,2.9E-18
CBAR,1563276,35,1934,1936,-.015273,-.020295,0.
CBAR,1563277,35,1936,1938,-.015293,-.020279,-1.2E-15
CBAR,1563278,35,1938,1940,-.01527,-.020297,1.74E-15
CBAR,1563279,35,1940,1942,-.015261,-.020303,2.9E-15
CBAR,1563280,35,1942,1944,-.015275,-.020293,-1.7E-15
CBAR,1563281,35,1944,1946,-.015262,-.020303,-2.8E-18
CBAR,1563282,35,1946,1948,-.015282,-.020288,-1.7E-15
$ ... 29 like lines cut
CBAR,1563312,35,1909,4333,.0150663,.0204492,3.E-18
CBAR,1563313,35,4333,10802,.0152706,.020297,1.16E-15
CBAR,1563314,35,10802,10803,.0152726,.0202955,-1.2E-15
CBAR,1563315,35,10809,135,-.015264,-.020301,1.15E-15
CBAR,1563316,35,135,2726,-.015277,-.020292,-1.7E-15
CBAR,1563317,35,2726,2723,-.015243,-.020317,5.77E-16
CBAR,1563318,35,2723,2721,-.015258,-.020306,-5.8E-16
CBAR,1563319,35,2721,2719,-.01522,-.020334,1.16E-15
CBAR,1563320,35,2719,2717,-.015301,-.020274,2.9E-15
CBAR,1563321,35,2717,2715,-.015292,-.02028,-1.7E-15
CBAR,1563322,35,2715,2713,-.015276,-.020292,1.15E-15
CBAR,1563323,35,2713,2711,-.015262,-.020303,0.
CBAR,1563324,35,2711,2709,-.015288,-.020283,1.75E-15
CBAR,1563325,35,2709,2707,-.015257,-.020306,1.73E-15
CBAR,1563326,35,2707,2705,-.015273,-.020294,1.74E-15
CBAR,1563327,35,2705,2703,-.015263,-.020302,1.74E-15
CBAR,1563328,35,2703,2701,-.015274,-.020294,-1.1E-15
CBAR,1563329,35,2701,2699,-.015301,-.020273,2.9E-15
CBAR,1563330,35,2699,2697,-.015256,-.020307,2.82E-18
CBAR,1563331,35,2697,2695,-.015292,-.02028,0.
CBAR,1563332,35,2695,2693,-.01527,-.020297,-1.8E-15
$ ... 226 like lines cut
CBAR,1563559,35,228,1393,.0152706,.020297,-3.E-18
CBAR,1563560,35,1393,1390,.0152706,.020297,1.74E-15
CBAR,1563561,35,1390,1395,.0152575,.0203068,-2.8E-15
CBAR,1563562,35,1395,1397,.0152792,.0202906,-1.7E-15
CBAR,1563563,35,1397,1399,.015263,.0203027,1.15E-15
CBAR,1563564,35,1399,1401,.0152689,.0202983,1.74E-15
CBAR,1563565,35,1401,1403,.0152547,.020309,1.73E-15
CBAR,1563566,35,1403,1405,.0154578,.0201548,1.15E-15
CBAR,1563567,35,1405,1407,.0150961,.0204272,-1.2E-15
CBAR,1563568,35,1407,1409,.0154057,.0201947,2.67E-18
CBAR,1563569,35,1409,1411,.0153582,.0202308,-1.1E-15
CBAR,1563570,35,1411,1413,.0152563,.0203077,-1.1E-15
CBAR,1563571,35,1413,1415,.0151717,.0203711,0.
CBAR,1563572,35,1415,1417,.0152036,.0203473,1.15E-15
CBAR,1563573,35,1417,1419,.0151747,.0203688,-1.2E-15
CBAR,1563574,35,1419,1421,.015264,.020302,-5.8E-16
CBAR,1563575,35,1421,1423,.0152641,.0203019,-5.8E-16
CBAR,1563576,35,1423,1425,.0152646,.0203015,2.64E-18
CBAR,1563577,35,1425,1427,.0153716,.0202207,-2.5E-18
CBAR,1563578,35,1427,1429,.0153616,.0202282,5.23E-18
CBAR,1563579,35,1429,1431,.0151486,.0203883,5.66E-16
$ ... 535 like lines cut

CTRIA3,2814,6,84,2376,4271
CTRIA3,6342,6,83,3235,2375
CTRIA3,29402,6,15586,15599,15587
CTRIA3,29405,6,15592,15593,15610
CTRIA3,1564968,6,18991,33796,33819
CTRIA3,1565241,6,22783,33813,33886

CQUAD4,2305,1,657,770,771,661
CQUAD4,2306,1,605,657,661,609
CQUAD4,2307,1,511,605,609,512
CQUAD4,2308,1,502,511,512,503
CQUAD4,2309,1,407,502,503,408
CQUAD4,2310,1,398,407,408,400
CQUAD4,2311,1,302,398,400,303
CQUAD4,2349,1,450,454,460,459
CQUAD4,2350,1,558,554,459,460
CQUAD4,2351,1,564,563,554,558
CQUAD4,2352,1,616,615,563,564
CQUAD4,2353,1,818,814,615,616
CQUAD4,2411,1,462,448,450,459
CQUAD4,2412,1,312,390,392,310
CQUAD4,2413,1,314,388,390,312
CQUAD4,2414,1,316,386,388,314
CQUAD4,2415,1,318,384,386,316
CQUAD4,2416,1,320,382,384,318
CQUAD4,2418,1,388,418,416,390
CQUAD4,2419,1,386,420,418,388
$ ... 12449 like lines cut


$,Nodes,of,the,Entire,Model
GRID,2,,{x2},{y2},{z2}
GRID,3,,{x3},{y3},{z3}
GRID,6,,{x6},{y6},{z6}
GRID,7,,{x7},{y7},{z7}
GRID,9,,{x9},{y9},{z9}
GRID,10,,{x10},{y10},{z10}
GRID,13,,{x13},{y13},{z13}
GRID,14,,{x14},{y14},{z14}
GRID,15,,{x15},{y15},{z15}
GRID,17,,{x17},{y17},{z17}
GRID,18,,{x18},{y18},{z18}
GRID,23,,{x23},{y23},{z23}
GRID,24,,{x24},{y24},{z24}
GRID,35,,{x35},{y35},{z35}
GRID,38,,{x38},{y38},{z38}
GRID,39,,{x39},{y39},{z39}
GRID,40,,{x40},{y40},{z40}
GRID,43,,{x43},{y43},{z43}
GRID,44,,{x44},{y44},{z44}
GRID,49,,{x49},{y49},{z49}
$ ... 10681 like lines cut
$GRID,33532,,x33532,y33532,z33532
$GRID,33533,,x33533,y33533,z33533
$GRID,33534,,x33534,y33534,z33534
$GRID,33535,,x33535,y33535,z33535
$GRID,33536,,x33536,y33536,z33536
$GRID,33537,,x33537,y33537,z33537
$GRID,33538,,x33538,y33538,z33538
$GRID,33539,,x33539,y33539,z33539
$GRID,33540,,x33540,y33540,z33540
$GRID,33541,,x33541,y33541,z33541
$GRID,33542,,x33542,y33542,z33542
$GRID,33543,,x33543,y33543,z33543
$GRID,33544,,x33544,y33544,z33544
$GRID,33545,,x33545,y33545,z33545
$GRID,33546,,x33546,y33546,z33546
$GRID,33547,,x33547,y33547,z33547
$GRID,33548,,x33548,y33548,z33548
$GRID,33549,,x33549,y33549,z33549
$GRID,33550,,x33550,y33550,z33550
$GRID,33551,,x33551,y33551,z33551
GRID,33552,,{x33552},{y33552},{z33552}
GRID,33554,,{x33554},{y33554},{z33554}
GRID,33555,,{x33555},{y33555},{z33555}
GRID,33796,,{x33796},{y33796},{z33796}
GRID,33800,,{x33800},{y33800},{z33800}
GRID,33801,,{x33801},{y33801},{z33801}
GRID,33803,,{x33803},{y33803},{z33803}
GRID,33805,,{x33805},{y33805},{z33805}
GRID,33807,,{x33807},{y33807},{z33807}
GRID,33809,,{x33809},{y33809},{z33809}
GRID,33811,,{x33811},{y33811},{z33811}
GRID,33813,,{x33813},{y33813},{z33813}
GRID,33819,,{x33819},{y33819},{z33819}
GRID,33821,,{x33821},{y33821},{z33821}
GRID,33823,,{x33823},{y33823},{z33823}
GRID,33825,,{x33825},{y33825},{z33825}
GRID,33827,,{x33827},{y33827},{z33827}
GRID,33829,,{x33829},{y33829},{z33829}
GRID,33831,,{x33831},{y33831},{z33831}
GRID,33856,,{x33856},{y33856},{z33856}
$ ... 81 like lines cut

$,Displacement,Constraints,of,Load,Set,:,spc1.1
SPC1,1,123,15,81,98,185,250,873
,898,901,2525,2528,2569,2572,6183,6184
SPC1,1,123,6266,THRU,6309
SPC1,1,123,6354,THRU,6395
SPC1,1,123,6810,6813,6916,6917,6918,6973
SPC1,1,123,7335,THRU,7364
SPC1,1,123,8341,8343,8904,9036,9050,9204
,9410,9473,9540,9606,9672,9736,9800,9863
,10823,11044,11045
SPC1,1,123,11580,THRU,11622

ENDDATA

$List of nodes belonging to the outer skin
$2
$3
$6
$7
$9
$10
$13
$15
$17
$18
$24
$35
$38
$39
$40
$43
$44
$49
$50
$56
$ ... 3303 like lines cut